pglib-opf-master/az_2022_case892.m
%%%%%%%%%%%%%%%%%%%%%%%%%%%%%%%%%%%%%%%%%%%%%%%%%%%%%%%%%%%%%%%%%%%%%%%%%%%
%%%%                                                                  %%%%%
%%%%    IEEE PES Power Grid Library - Optimal Power Flow - v20.07     %%%%%
%%%%          (https://github.com/power-grid-lib/pglib-opf)           %%%%%
%%%%               Benchmark Group - Typical Operations               %%%%%
%%%%                         12 - July - 2020                         %%%%%
%%%%                                                                  %%%%%
%%%%%%%%%%%%%%%%%%%%%%%%%%%%%%%%%%%%%%%%%%%%%%%%%%%%%%%%%%%%%%%%%%%%%%%%%%%
%
%   Power flow data for IEEE 14 bus test case.
%   This data was converted from IEEE Common Data Format
%   (ieee14cdf.txt) on 20-Sep-2004 by cdf2matp, rev. 1.11
%
%   Converted from IEEE CDF file from:
%        http://www.ee.washington.edu/research/pstca/
%
%   Copyright (c) 1999 by Richard D. Christie, University of Washington
%   Electrical Engineering Licensed under the Creative Commons Attribution 4.0
%   International license, http://creativecommons.org/licenses/by/4.0/
%
%   CDF Header:
%   08/19/93 UW ARCHIVE           100.0  1962 W IEEE 14 Bus Test Case
%
function mpc = pglib_opf_case14_ieee
mpc.version = '2';
mpc.baseMVA = 100.0;

%% bus data
%	bus_i	type	Pd	Qd	Gs	Bs	area	Vm	Va	baseKV	zone	Vmax	Vmin
mpc.bus = [
1	1	3	0	0	0	1	0	0	0	5	0	0;
2	1	1	0	0	0	1	0	0	0	0	0	0;
3	1	6	0	0	0	1	0	0	0	5	0	0;
4	1	4	0	0	0	1	0	0	0	5	0	0;
5	1	5	0	0	0	2	0	0	0	0	0	0;
6	1	5	0	0	0	3	0	0	0	4	0	0;
7	1	4	0	0	0	1	0	0	0	5	0	0;
8	1	7	0	0	0	3	0	0	0	1	0	0;
9	1	6	0	0	0	3	0	0	0	4	0	0;
10	1	9	0	0	0	2	0	0	0	0	0	0;
11	1	9	0	0	0	3	0	0	0	6	0	0;
12	1	10	0	0	0	3	0	0	0	6	0	0;
13	1	3	0	0	0	2	0	0	0	5	0	0;
14	1	312.866461	0	0	0	3	0	0	0	6	0	0;
15	1	4	0	0	0	2	0	0	0	0	0	0;
16	1	8	0	0	0	2	0	0	0	0	0	0;
17	1	8	0	0	0	3	0	0	0	6	0	0;
18	1	7	0	0	0	3	0	0	0	6	0	0;
19	1	1313.75	0	0	0	3	0	0	0	6	0	0;
20	1	2115	0	0	0	3	0	0	0	6	0	0;
21	1	5	0	0	0	3	0	0	0	1	0	0;
22	1	1	0	0	0	2	0	0	0	5	0	0;
23	1	8	0	0	0	3	0	0	0	1	0	0;
24	1	1	0	0	0	3	0	0	0	4	0	0;
25	1	10	0	0	0	2	0	0	0	0	0	0;
26	1	2	0	0	0	2	0	0	0	0	0	0;
27	1	9	0	0	0	3	0	0	0	1	0	0;
28	1	1	0	0	0	2	0	0	0	4	0	0;
29	1	10	0	0	0	3	0	0	0	6	0	0;
30	1	9	0	0	0	3	0	0	0	6	0	0;
31	1	8	0	0	0	3	0	0	0	6	0	0;
32	1	5	0	0	0	4	0	0	0	0	0	0;
33	1	6	0	0	0	3	0	0	0	4	0	0;
34	1	4	0	0	0	3	0	0	0	6	0	0;
35	1	5	0	0	0	3	0	0	0	1	0	0;
36	1	9	0	0	0	3	0	0	0	6	0	0;
37	1	10	0	0	0	4	0	0	0	4	0	0;
38	1	3	0	0	0	3	0	0	0	1	0	0;
39	1	7	0	0	0	2	0	0	0	0	0	0;
40	1	10	0	0	0	3	0	0	0	1	0	0;
41	1	6	0	0	0	3	0	0	0	6	0	0;
42	1	7	0	0	0	3	0	0	0	6	0	0;
43	1	10	0	0	0	4	0	0	0	0	0	0;
44	1	2	0	0	0	3	0	0	0	1	0	0;
45	1	3	0	0	0	3	0	0	0	6	0	0;
46	1	5	0	0	0	3	0	0	0	1	0	0;
47	1	1	0	0	0	3	0	0	0	6	0	0;
48	1	4	0	0	0	3	0	0	0	1	0	0;
49	1	4	0	0	0	3	0	0	0	6	0	0;
50	1	7	0	0	0	3	0	0	0	6	0	0;
51	1	7	0	0	0	3	0	0	0	6	0	0;
52	1	6	0	0	0	4	0	0	0	4	0	0;
53	1	6	0	0	0	3	0	0	0	6	0	0;
54	1	9	0	0	0	3	0	0	0	6	0	0;
55	1	3	0	0	0	3	0	0	0	6	0	0;
56	1	3	0	0	0	3	0	0	0	6	0	0;
57	1	7	0	0	0	3	0	0	0	4	0	0;
58	1	7	0	0	0	3	0	0	0	4	0	0;
59	1	13	0	0	0	3	0	0	0	6	0	0;
60	1	6	0	0	0	3	0	0	0	1	0	0;
61	1	10	0	0	0	2	0	0	0	0	0	0;
62	1	5	0	0	0	3	0	0	0	6	0	0;
63	1	7	0	0	0	3	0	0	0	6	0	0;
64	1	1	0	0	0	3	0	0	0	6	0	0;
65	1	9	0	0	0	3	0	0	0	6	0	0;
66	1	2	0	0	0	3	0	0	0	6	0	0;
67	1	3	0	0	0	3	0	0	0	6	0	0;
68	1	10	0	0	0	3	0	0	0	6	0	0;
69	1	1	0	0	0	3	0	0	0	6	0	0;
70	1	4	0	0	0	4	0	0	0	0	0	0;
71	1	2	0	0	0	3	0	0	0	1	0	0;
72	1	4	0	0	0	3	0	0	0	6	0	0;
73	1	9	0	0	0	2	0	0	0	5	0	0;
74	1	528.1825365	0	0	0	3	0	0	0	6	0	0;
75	1	4	0	0	0	3	0	0	0	6	0	0;
76	1	3	0	0	0	3	0	0	0	4	0	0;
77	1	6	0	0	0	3	0	0	0	1	0	0;
78	1	9	0	0	0	2	0	0	0	4	0	0;
79	1	8	0	0	0	3	0	0	0	6	0	0;
80	1	3	0	0	0	3	0	0	0	4	0	0;
81	1	6	0	0	0	3	0	0	0	4	0	0;
82	1	4	0	0	0	3	0	0	0	6	0	0;
83	1	533.408103	0	0	0	3	0	0	0	6	0	0;
84	1	8	0	0	0	3	0	0	0	6	0	0;
85	1	2	0	0	0	4	0	0	0	0	0	0;
86	1	1	0	0	0	2	0	0	0	0	0	0;
87	1	7	0	0	0	3	0	0	0	6	0	0;
88	1	6	0	0	0	3	0	0	0	6	0	0;
89	1	4	0	0	0	3	0	0	0	6	0	0;
90	1	9	0	0	0	3	0	0	0	6	0	0;
91	1	7	0	0	0	3	0	0	0	6	0	0;
92	1	1	0	0	0	3	0	0	0	6	0	0;
93	1	8	0	0	0	2	0	0	0	4	0	0;
94	1	8	0	0	0	3	0	0	0	6	0	0;
95	1	2	0	0	0	3	0	0	0	6	0	0;
96	1	7	0	0	0	1	0	0	0	0	0	0;
97	1	2	0	0	0	3	0	0	0	6	0	0;
98	1	9	0	0	0	3	0	0	0	6	0	0;
99	1	9	0	0	0	3	0	0	0	6	0	0;
100	1	3	0	0	0	3	0	0	0	6	0	0;
101	1	4	0	0	0	3	0	0	0	1	0	0;
102	1	7	0	0	0	3	0	0	0	1	0	0;
103	1	8	0	0	0	3	0	0	0	1	0	0;
104	1	10	0	0	0	3	0	0	0	1	0	0;
105	1	2	0	0	0	3	0	0	0	6	0	0;
106	1	3	0	0	0	3	0	0	0	6	0	0;
107	1	9	0	0	0	3	0	0	0	6	0	0;
108	1	10	0	0	0	3	0	0	0	6	0	0;
109	1	7	0	0	0	3	0	0	0	1	0	0;
110	1	9	0	0	0	3	0	0	0	6	0	0;
111	1	5	0	0	0	3	0	0	0	6	0	0;
112	1	7	0	0	0	3	0	0	0	6	0	0;
113	1	9	0	0	0	3	0	0	0	4	0	0;
114	1	10	0	0	0	3	0	0	0	6	0	0;
115	1	3	0	0	0	3	0	0	0	6	0	0;
116	1	9	0	0	0	3	0	0	0	6	0	0;
117	1	7	0	0	0	3	0	0	0	6	0	0;
118	1	7	0	0	0	3	0	0	0	1	0	0;
119	1	78	0	0	0	2	0	0	0	1	0	0;
120	1	3	0	0	0	3	0	0	0	6	0	0;
121	1	8	0	0	0	3	0	0	0	6	0	0;
122	1	2	0	0	0	3	0	0	0	6	0	0;
123	1	7	0	0	0	3	0	0	0	1	0	0;
124	1	10	0	0	0	4	0	0	0	4	0	0;
125	1	5	0	0	0	3	0	0	0	6	0	0;
126	1	8	0	0	0	3	0	0	0	6	0	0;
127	1	7	0	0	0	3	0	0	0	6	0	0;
128	1	8	0	0	0	3	0	0	0	6	0	0;
129	1	4	0	0	0	3	0	0	0	6	0	0;
130	1	10	0	0	0	3	0	0	0	1	0	0;
131	1	5	0	0	0	4	0	0	0	5	0	0;
132	1	2	0	0	0	3	0	0	0	1	0	0;
133	1	2	0	0	0	4	0	0	0	1	0	0;
134	1	10	0	0	0	2	0	0	0	5	0	0;
135	1	4	0	0	0	3	0	0	0	6	0	0;
136	1	6	0	0	0	2	0	0	0	0	0	0;
137	1	9	0	0	0	2	0	0	0	0	0	0;
138	1	5	0	0	0	3	0	0	0	6	0	0;
139	1	4	0	0	0	3	0	0	0	6	0	0;
140	1	10	0	0	0	3	0	0	0	1	0	0;
141	1	3	0	0	0	3	0	0	0	6	0	0;
142	1	7	0	0	0	3	0	0	0	6	0	0;
143	1	5	0	0	0	3	0	0	0	6	0	0;
144	1	5	0	0	0	2	0	0	0	0	0	0;
145	1	1	0	0	0	2	0	0	0	0	0	0;
146	1	2	0	0	0	4	0	0	0	5	0	0;
147	1	359.1	0	0	0	3	0	0	0	1	0	0;
148	1	9	0	0	0	3	0	0	0	6	0	0;
149	1	3	0	0	0	3	0	0	0	6	0	0;
150	1	7	0	0	0	3	0	0	0	6	0	0;
151	1	1	0	0	0	2	0	0	0	0	0	0;
152	1	10	0	0	0	3	0	0	0	6	0	0;
153	1	5	0	0	0	3	0	0	0	1	0	0;
154	1	4	0	0	0	3	0	0	0	1	0	0;
155	1	79	0	0	0	4	0	0	0	0	0	0;
156	1	9	0	0	0	3	0	0	0	6	0	0;
157	1	1	0	0	0	3	0	0	0	6	0	0;
158	1	1	0	0	0	3	0	0	0	1	0	0;
159	1	8	0	0	0	3	0	0	0	6	0	0;
160	1	7	0	0	0	3	0	0	0	6	0	0;
161	1	4	0	0	0	2	0	0	0	0	0	0;
162	1	1	0	0	0	4	0	0	0	0	0	0;
163	1	3	0	0	0	3	0	0	0	4	0	0;
164	1	7	0	0	0	3	0	0	0	6	0	0;
165	1	48	0	0	0	3	0	0	0	1	0	0;
166	1	3	0	0	0	3	0	0	0	6	0	0;
167	1	10	0	0	0	3	0	0	0	6	0	0;
168	1	7	0	0	0	2	0	0	0	5	0	0;
169	1	9	0	0	0	2	0	0	0	0	0	0;
170	1	7	0	0	0	3	0	0	0	6	0	0;
171	1	10	0	0	0	3	0	0	0	6	0	0;
172	1	3	0	0	0	3	0	0	0	6	0	0;
173	1	10	0	0	0	3	0	0	0	6	0	0;
174	1	3	0	0	0	3	0	0	0	6	0	0;
175	1	786	0	0	0	3	0	0	0	6	0	0;
176	1	3	0	0	0	3	0	0	0	6	0	0;
177	1	7	0	0	0	3	0	0	0	4	0	0;
178	1	2	0	0	0	3	0	0	0	1	0	0;
179	1	2	0	0	0	3	0	0	0	1	0	0;
180	1	6	0	0	0	3	0	0	0	6	0	0;
181	1	2	0	0	0	3	0	0	0	1	0	0;
182	1	9	0	0	0	3	0	0	0	6	0	0;
183	1	5	0	0	0	3	0	0	0	6	0	0;
184	1	5	0	0	0	3	0	0	0	1	0	0;
185	1	1	0	0	0	3	0	0	0	6	0	0;
186	1	1	0	0	0	3	0	0	0	1	0	0;
187	1	2	0	0	0	3	0	0	0	1	0	0;
188	1	2	0	0	0	3	0	0	0	6	0	0;
189	1	9	0	0	0	3	0	0	0	6	0	0;
190	1	4	0	0	0	3	0	0	0	6	0	0;
191	1	64	0	0	0	3	0	0	0	6	0	0;
192	1	7	0	0	0	3	0	0	0	6	0	0;
193	1	602.4	0	0	0	3	0	0	0	6	0	0;
194	1	8	0	0	0	2	0	0	0	0	0	0;
195	1	2	0	0	0	3	0	0	0	6	0	0;
196	1	8	0	0	0	2	0	0	0	5	0	0;
197	1	10	0	0	0	3	0	0	0	6	0	0;
198	1	4	0	0	0	3	0	0	0	1	0	0;
199	1	6	0	0	0	3	0	0	0	1	0	0;
200	1	4	0	0	0	3	0	0	0	6	0	0;
...
];

%% generator data
%	bus	Pg	Qg	Qmax	Qmin	Vg	mBase	status	Pmax	Pmin
mpc.gen = [
	570	1.4	0	0	0	0	0	1	1.4	0;	0
	564	767	0	0	0	0	0	1	767	0;	0
	806	15	0	0	0	0	0	1	15	0;	0
	83	623.5	0	0	0	0	0	1	623.5	0;	0
	175	920	0	0	0	0	0	1	920	0;	0
	794	176	0	0	0	0	0	1	176	0;	0
	359	328	0	0	0	0	0	1	328	0;	0
	728	75	0	0	0	0	0	1	75	0;	0
	147	490	0	0	0	0	0	1	490	0;	0
	74	626.2	0	0	0	0	0	1	626.2	0;	0
	401	3	0	0	0	0	0	1	3	0;	0
	119	149	0	0	0	0	0	1	149	0;	0
	759	525	0	0	0	0	0	1	525	0;	0
	331	68.8	0	0	0	0	0	1	68.8	0;	0
	786	36	0	0	0	0	0	1	36	0;	0
	622	13	0	0	0	0	0	1	13	0;	0
	289	254.8	0	0	0	0	0	1	254.8	0;	0
	755	1312	0	0	0	0	0	1	1312	0;	0
	544	548.5	0	0	0	0	0	1	548.5	0;	0
	20	3937	0	0	0	0	0	1	3937	0;	0
	758	95	0	0	0	0	0	1	95	0;	0
	134	762	0	0	0	0	0	1	762	0;	0
	562	60.3	0	0	0	0	0	1	60.3	0;	0
	108	40	0	0	0	0	0	1	40	0;	0
	171	19.5	0	0	0	0	0	1	19.5	0;	0
	672	1227	0	0	0	0	0	1	1227	0;	0
	350	1638.4	0	0	0	0	0	1	1638.4	0;	0
	178	3.1	0	0	0	0	0	1	3.1	0;	0
	640	52.2	0	0	0	0	0	1	52.2	0;	0
	292	570	0	0	0	0	0	1	570	0;	0
	14	577	0	0	0	0	0	1	577	0;	0
	731	550	0	0	0	0	0	1	550	0;	0
	739	580	0	0	0	0	0	1	580	0;	0
	19	515	0	0	0	0	0	1	515	0;	0
	515	1042.9	0	0	0	0	0	1	1042.9	0;	0
	193	934	0	0	0	0	0	1	934	0;	0
	595	624	0	0	0	0	0	1	624	0;	0
	821	410	0	0	0	0	0	1	410	0;	0
	394	2.1	0	0	0	0	0	1	2.1	0;	0
	184	8.3	0	0	0	0	0	1	8.3	0;	0
	400	2.5	0	0	0	0	0	1	2.5	0;	0
	473	90	0	0	0	0	0	1	90	0;	0
	615	22.2	0	0	0	0	0	1	22.2	0;	0
	414	295.6	0	0	0	0	0	1	295.6	0;	0
	1	3	0	0	0	0	0	1	3	0;	0
	402	520.8	0	0	0	0	0	1	520.8	0;	0
	744	630	0	0	0	0	0	1	630	0;	0
	694	20	0	0	0	0	0	1	20	0;	0
	88	12.8	0	0	0	0	0	1	12.8	0;	0
	813	347.7	0	0	0	0	0	1	347.7	0;	0
	580	65.1	0	0	0	0	0	1	65.1	0;	0
	57	1.2	0	0	0	0	0	1	1.2	0;	0
	116	3.2	0	0	0	0	0	1	3.2	0;	0
	154	0.9	0	0	0	0	0	1	0.9	0;	0
	601	1	0	0	0	0	0	1	1	0;	0
	39	19	0	0	0	0	0	1	19	0;	0
	706	17	0	0	0	0	0	1	17	0;	0
	706	17.6	0	0	0	0	0	1	17.6	0;	0
	284	22	0	0	0	0	0	1	22	0;	0
	303	25	0	0	0	0	0	1	25	0;	0
	135	3.5	0	0	0	0	0	1	3.5	0;	0
	193	125.4	0	0	0	0	0	1	125.4	0;	0
	377	170	0	0	0	0	0	1	170	0;	0
	279	4.7	0	0	0	0	0	1	4.7	0;	0
	868	10.5	0	0	0	0	0	1	10.5	0;	0
	123	15	0	0	0	0	0	1	15	0;	0
	703	4.5	0	0	0	0	0	1	4.5	0;	0
	643	2.8	0	0	0	0	0	1	2.8	0;	0
	382	18.6	0	0	0	0	0	1	18.6	0;	0
	300	2	0	0	0	0	0	1	2	0;	0
	106	35	0	0	0	0	0	1	35	0;	0
	167	3.3	0	0	0	0	0	1	3.3	0;	0
	473	9	0	0	0	0	0	1	9	0;	0
	394	10.8	0	0	0	0	0	1	10.8	0;	0
	820	99.2	0	0	0	0	0	1	99.2	0;	0
	774	4.5	0	0	0	0	0	1	4.5	0;	0
	83	17.1	0	0	0	0	0	1	17.1	0;	0
	59	15	0	0	0	0	0	1	15	0;	0
	852	14.8	0	0	0	0	0	1	14.8	0;	0
	241	1.1	0	0	0	0	0	1	1.1	0;	0
	112	1.3	0	0	0	0	0	1	1.3	0;	0
	284	14	0	0	0	0	0	1	14	0;	0
	303	20	0	0	0	0	0	1	20	0;	0
	706	15	0	0	0	0	0	1	15	0;	0
	742	1.6	0	0	0	0	0	1	1.6	0;	0
	91	1.4	0	0	0	0	0	1	1.4	0;	0
	529	6	0	0	0	0	0	1	6	0;	0
	428	2.5	0	0	0	0	0	1	2.5	0;	0
	595	595	0	0	0	0	0	1	595	0;	0
	35	3	0	0	0	0	0	1	3	0;	0
	62	1	0	0	0	0	0	1	1	0;	0
	726	1.4	0	0	0	0	0	1	1.4	0;	0
	57	1	0	0	0	0	0	1	1	0;	0
	155	81	0	0	0	0	0	1	81	0;	0
	57	5	0	0	0	0	0	1	5	0;	0
	674	17.7	0	0	0	0	0	1	17.7	0;	0
	414	32	0	0	0	0	0	1	32	0;	0
	493	6	0	0	0	0	0	1	6	0;	0
	199	29	0	0	0	0	0	1	29	0;	0
	477	5	0	0	0	0	0	1	5	0;	0
	19	515	0	0	0	0	0	1	515	0;	0
	95	10	0	0	0	0	0	1	10	0;	0
	147	10	0	0	0	0	0	1	10	0;	0
	57	5	0	0	0	0	0	1	5	0;	0
	585	43	0	0	0	0	0	1	43	0;	0
	147	12.6	0	0	0	0	0	1	12.6	0;	0
	19	515	0	0	0	0	0	1	515	0;	0
	326	4.4	0	0	0	0	0	1	4.4	0;	0
	199	16	0	0	0	0	0	1	16	0;	0
	18	1.8	0	0	0	0	0	1	1.8	0;	0
	124	30	0	0	0	0	0	1	30	0;	0
	377	100	0	0	0	0	0	1	100	0;	0
	377	150	0	0	0	0	0	1	150	0;	0
	544	20	0	0	0	0	0	1	20	0;	0
	165	50	0	0	0	0	0	1	50	0;	0
	21	40	0	0	0	0	0	1	40	0;	0
	24	4.4	0	0	0	0	0	1	4.4	0;	0
	291	1	0	0	0	0	0	1	1	0;	0
	396	1.5	0	0	0	0	0	1	1.5	0;	0
	19	515	0	0	0	0	0	1	515	0;	0
	272	4.2	0	0	0	0	0	1	4.2	0;	0
	53	160	0	0	0	0	0	1	160	0;	0
	544	20	0	0	0	0	0	1	20	0;	0
	57	12	0	0	0	0	0	1	12	0;	0
	557	1.3	0	0	0	0	0	1	1.3	0;	0
	728	10	0	0	0	0	0	1	10	0;	0
	17	1.2	0	0	0	0	0	1	1.2	0;	0
	606	55.3	0	0	0	0	0	1	55.3	0;	0
	210	55	0	0	0	0	0	1	55	0;	0
	817	300	0	0	0	0	0	1	300	0;	0
	416	10	0	0	0	0	0	1	10	0;	0
	378	2	0	0	0	0	0	1	2	0;	0
	35	1.1	0	0	0	0	0	1	1.1	0;	0
	322	2.4	0	0	0	0	0	1	2.4	0;	0
	95	10	0	0	0	0	0	1	10	0;	0
	71	32.5	0	0	0	0	0	1	32.5	0;	0
	818	1.3	0	0	0	0	0	1	1.3	0;	0
	326	10	0	0	0	0	0	1	10	0;	0
	71	2409	0	0	0	0	0	1	2409	0;	0
    167	1039	0	0	0	0	0	1	1039	0;	0
    186	2	0	0	0	0	0	1	2	0;	0
    258	900	0	0	0	0	0	1	900	0;	0
    564	127	0	0	0	0	0	1	127	0;	0
    356	1678	0	0	0	0	0	1	1678	0;	0
    631	200	0	0	0	0	0	1	200	0;	0
    19	6	0	0	0	0	0	1	6	0;	0
    796	200	0	0	0	0	0	1	200	0;	0
    15	900	0	0	0	0	0	1	900	0;	0
    184	900	0	0	0	0	0	1	900	0;	0
    193	900	0	0	0	0	0	1	900	0;	0
    264	900	0	0	0	0	0	1	900	0;	0
    755	900	0	0	0	0	0	1	900	0;	0
    634	900	0	0	0	0	0	1	900	0;	0
    201	900	0	0	0	0	0	1	900	0;	0
    525	900	0	0	0	0	0	1	900	0;	0
    723	900	0	0	0	0	0	1	900	0;	0
    385	900	0	0	0	0	0	1	900	0;	0
    810	900	0	0	0	0	0	1	900	0;	0
    218	900	0	0	0	0	0	1	900	0;	0
    258	90	0	0	0	0	0	1	90	0;	0
    85	90	0	0	0	0	0	1	90	0;	0
    456	90	0	0	0	0	0	1	90	0;	0
    624	90	0	0	0	0	0	1	90	0;	0
    367	90	0	0	0	0	0	1	90	0;	0
    689	90	0	0	0	0	0	1	90	0;	0
    578	90	0	0	0	0	0	1	90	0;	0
    555	90	0	0	0	0	0	1	90	0;	0
    411	90	0	0	0	0	0	1	90	0;	0
    766	90	0	0	0	0	0	1	90	0;	0
    25	90	0	0	0	0	0	1	90	0;	0
    769	90	0	0	0	0	0	1	90	0;	0
    196	90	0	0	0	0	0	1	90	0;	0
    568	90	0	0	0	0	0	1	90	0;	0
    659	90	0	0	0	0	0	1	90	0;	0
    680	90	0	0	0	0	0	1	90	0;	0
    336	90	0	0	0	0	0	1	90	0;	0
    719	90	0	0	0	0	0	1	90	0;	0
    817	180	0	0	0	0	0	1	180	0;	0
    862	90	0	0	0	0	0	1	90	0;	0
    183	90	0	0	0	0	0	1	90	0;	0
    307	90	0	0	0	0	0	1	90	0;	0
    565	90	0	0	0	0	0	1	90	0;	0
    127	90	0	0	0	0	0	1	90	0;	0
    864	90	0	0	0	0	0	1	90	0;	0
    427	90	0	0	0	0	0	1	90	0;	0
    773	90	0	0	0	0	0	1	90	0;	0
    556	90	0	0	0	0	0	1	90	0;	0
    609	90	0	0	0	0	0	1	90	0;	0
    604	90	0	0	0	0	0	1	90	0;	0
    756	90	0	0	0	0	0	1	90	0;	0
    56	90	0	0	0	0	0	1	90	0;	0
    582	90	0	0	0	0	0	1	90	0;	0
    257	90	0	0	0	0	0	1	90	0;	0
    834	90	0	0	0	0	0	1	90	0;	0
    852	90	0	0	0	0	0	1	90	0;	0
    743	90	0	0	0	0	0	1	90	0;	0
    348	90	0	0	0	0	0	1	90	0;	0
    443	90	0	0	0	0	0	1	90	0;	0
    711	90	0	0	0	0	0	1	90	0;	0
    791	90	0	0	0	0	0	1	90	0;	0
...
];

%% generator cost data
%	2	startup	shutdown	n	c(n-1)	...	c0
mpc.gencost = [
2	0	0	3	0	0	0;
2	0	0	3	0	186393211.2	0;
2	0	0	3	0	2211381215	0;
2	0	0	3	0	80780302.71	0;
2	0	0	3	0	119194672.8	0;
2	0	0	3	0	22802459.14	0;
2	0	0	3	0	10500501193	0;
2	0	0	3	0	9716957.022	0;
2	0	0	3	0	63484119.21	0;
2	0	0	3	0	81104201.28	0;
2	0	0	3	0	0	0;
2	0	0	3	0	0	0;
2	0	0	3	0	68018699.15	0;
2	0	0	3	0	0	0;
2	0	0	3	0	0	0;
2	0	0	3	0	0	0;
2	0	0	3	0	0	0;
2	0	0	3	0	0	0;
2	0	0	3	0	90918232.09	0;
2	0	0	3	0	6849000000	0;
2	0	0	3	0	12308145.56	0;
2	0	0	3	0	185178131.6	0;
2	0	0	3	0	7812433.445	0;
2	0	0	3	0	0	0;
2	0	0	3	0	0	0;
2	0	0	3	0	158969416.9	0;
2	0	0	3	0	394900871.1	0;
2	0	0	3	0	221345416.6	0;
2	0	0	3	0	6763002.087	0;
2	0	0	3	0	73848873.37	0;
2	0	0	3	0	74755789.35	0;
2	0	0	3	0	71257684.83	0;
2	0	0	3	0	75144467.63	0;
2	0	0	3	0	66723104.88	0;
2	0	0	3	0	135117526.4	0;
2	0	0	3	0	121008504.8	0;
2	0	0	3	0	80845082.42	0;
2	0	0	3	0	53119365.05	0;
2	0	0	3	0	0	0;
2	0	0	3	0	1075343.244	0;
2	0	0	3	0	0	0;
2	0	0	3	0	11660348.43	0;
2	0	0	3	0	0	0;
2	0	0	3	0	0	0;
2	0	0	3	0	442276243.1	0;
2	0	0	3	0	67474549.56	0;
2	0	0	3	0	0	0;
2	0	0	3	0	0	0;
2	0	0	3	0	0	0;
2	0	0	3	0	0	0;
2	0	0	3	0	0	0;
2	0	0	3	0	0	0;
2	0	0	3	0	0	0;
2	0	0	3	0	0	0;
2	0	0	3	0	0	0;
2	0	0	3	0	0	0;
2	0	0	3	0	0	0;
2	0	0	3	0	0	0;
2	0	0	3	0	0	0;
2	0	0	3	0	0	0;
2	0	0	3	0	0	0;
2	0	0	3	0	0	0;
2	0	0	3	0	0	0;
2	0	0	3	0	0	0;
2	0	0	3	0	0	0;
2	0	0	3	0	0	0;
2	0	0	3	0	0	0;
2	0	0	3	0	0	0;
2	0	0	3	0	0	0;
2	0	0	3	0	0	0;
2	0	0	3	0	0	0;
2	0	0	3	0	0	0;
2	0	0	3	0	0	0;
2	0	0	3	0	0	0;
2	0	0	3	0	0	0;
2	0	0	3	0	0	0;
2	0	0	3	0	2215466.201	0;
2	0	0	3	0	0	0;
2	0	0	3	0	0	0;
2	0	0	3	0	0	0;
2	0	0	3	0	0	0;
2	0	0	3	0	0	0;
2	0	0	3	0	0	0;
2	0	0	3	0	0	0;
2	0	0	3	0	0	0;
2	0	0	3	0	0	0;
2	0	0	3	0	0	0;
2	0	0	3	0	0	0;
2	0	0	3	0	77087859.04	0;
2	0	0	3	0	0	0;
2	0	0	3	0	0	0;
2	0	0	3	0	0	0;
2	0	0	3	0	0	0;
2	0	0	3	0	0	0;
2	0	0	3	0	0	0;
2	0	0	3	0	0	0;
2	0	0	3	0	0	0;
2	0	0	3	0	0	0;
2	0	0	3	0	0	0;
2	0	0	3	0	647797.1348	0;
2	0	0	3	0	66723104.88	0;
2	0	0	3	0	0	0;
2	0	0	3	0	0	0;
2	0	0	3	0	0	0;
2	0	0	3	0	0	0;
2	0	0	3	0	0	0;
2	0	0	3	0	66723104.88	0;
2	0	0	3	0	0	0;
2	0	0	3	0	0	0;
2	0	0	3	0	0	0;
2	0	0	3	0	0	0;
2	0	0	3	0	0	0;
2	0	0	3	0	0	0;
2	0	0	3	0	0	0;
2	0	0	3	0	0	0;
2	0	0	3	0	0	0;
2	0	0	3	0	0	0;
2	0	0	3	0	0	0;
2	0	0	3	0	0	0;
2	0	0	3	0	66723104.88	0;
2	0	0	3	0	0	0;
2	0	0	3	0	0	0;
2	0	0	3	0	0	0;
2	0	0	3	0	0	0;
2	0	0	3	0	0	0;
2	0	0	3	0	0	0;
2	0	0	3	0	0	0;
2	0	0	3	0	0	0;
2	0	0	3	0	0	0;
2	0	0	3	0	0	0;
2	0	0	3	0	0	0;
2	0	0	3	0	0	0;
2	0	0	3	0	0	0;
2	0	0	3	0	0	0;
2	0	0	3	0	0	0;
2	0	0	3	0	0	0;
2	0	0	3	0	0	0;
2	0	0	3	0	0	0;
2	0	0	3	0	158969416.9	0;
2	0	0	3	0	394900871.1	0;
2	0	0	3	0	221345416.6	0;
2	0	0	3	0	6763002.087	0;
2	0	0	3	0	73848873.37	0;
2	0	0	3	0	74755789.35	0;
2	0	0	3	0	71257684.83	0;
2	0	0	3	0	75144467.63	0;
2	0	0	3	0	66723104.88	0;
2	0	0	3	0	135117526.4	0;
2	0	0	3	0	121008504.8	0;
2	0	0	3	0	80845082.42	0;
2	0	0	3	0	53119365.05	0;
2	0	0	3	0	121008504.8	0;
2	0	0	3	0	80845082.42	0;
2	0	0	3	0	80845082.42	0;
2	0	0	3	0	80845082.42	0;
2	0	0	3	0	80845082.42	0;
2	0	0	3	0	80845082.42	0;
2	0	0	3	0	80845082.42	0;
2	0	0	3	0	80845082.42	0;
2	0	0	3	0	80845082.42	0;
2	0	0	3	0	80845082.42	0;
2	0	0	3	0	80845082.42	0;
2	0	0	3	0	80845082.42	0;
2	0	0	3	0	80845082.42	0;
2	0	0	3	0	80845082.42	0;
2	0	0	3	0	80845082.42	0;
2	0	0	3	0	80845082.42	0;
2	0	0	3	0	80845082.42	0;
2	0	0	3	0	80845082.42	0;
2	0	0	3	0	80845082.42	0;
2	0	0	3	0	80845082.42	0;
2	0	0	3	0	80845082.42	0;
2	0	0	3	0	80845082.42	0;
2	0	0	3	0	80845082.42	0;
2	0	0	3	0	80845082.42	0;
2	0	0	3	0	80845082.42	0;
2	0	0	3	0	80845082.42	0;
2	0	0	3	0	80845082.42	0;
2	0	0	3	0	80845082.42	0;
2	0	0	3	0	80845082.42	0;
2	0	0	3	0	80845082.42	0;
2	0	0	3	0	80845082.42	0;
2	0	0	3	0	80845082.42	0;
2	0	0	3	0	80845082.42	0;
2	0	0	3	0	80845082.42	0;
2	0	0	3	0	80845082.42	0;
2	0	0	3	0	80845082.42	0;
2	0	0	3	0	80845082.42	0;
2	0	0	3	0	80845082.42	0;
2	0	0	3	0	80845082.42	0;
2	0	0	3	0	80845082.42	0;
2	0	0	3	0	80845082.42	0;
2	0	0	3	0	80845082.42	0;
2	0	0	3	0	80845082.42	0;
2	0	0	3	0	80845082.42	0;
2	0	0	3	0	80845082.42	0;
2	0	0	3	0	80845082.42	0;
2	0	0	3	0	80845082.42	0;
2	0	0	3	0	80845082.42	0;
2	0	0	3	0	80845082.42	0;
...
];

%% branch data
%	fbus	tbus	r	x	b	rateA	rateB	rateC	ratio	angle	status	angmin	angmax
mpc.branch = [
3	4	0	0.013694176	0	1400000	280000	8.325	0	0	1	0	0;
4	1	0	0.000939006	0	1400000	280000	8.325	0	0	1	0	0;
5	3	0	0.239772901	0	1400000	280000	2.406643874	0	0	1	0	0;
3	7	0	0.000625165	0	1500000	300000	18.75	0	0	1	0	0;
546	569	0	0.099909127	0	1500000	300000	4.131287308	0	0	1	0	0;
722	546	0	0.075141061	0	1500000	300000	4.985215202	0	0	1	0	0;
892	81	0	0.015398315	0	1800000	360000	33	0	0	1	0	0;
722	892	0	0.025142832	0	1800000	360000	33	0	0	1	0	0;
581	722	0	0.062622462	0	1500000	300000	5.621878795	0	0	1	0	0;
569	186	0	0.422207775	0	1500000	300000	3.125	0	0	1	0	0;
240	885	0	0.019058948	0	1800000	360000	33	0	0	1	0	0;
890	886	0	0.043519245	0	1800000	360000	33	0	0	1	0	0;
890	240	0	0.003080544	0	1800000	360000	34.46907347	0	0	1	0	0;
884	886	0	0.019379787	0	1800000	360000	33	0	0	1	0	0;
877	887	0	0.058954813	0	1600000	320000	12.625	0	0	1	0	0;
142	203	0	0.009402926	0	1500000	300000	18.75	0	0	1	0	0;
380	68	0	0.030852421	0	1500000	300000	8.966826125	0	0	1	0	0;
805	36	0	0.019645203	0	1500000	300000	12.07597857	0	0	1	0	0;
19	737	0	0.048525155	0	1800000	360000	33	0	0	1	0	0;
882	775	0	0.025609404	0	1500000	300000	10.13877659	0	0	1	0	0;
19	698	0	0.16173123	0	1800000	360000	33	0	0	1	0	0;
876	879	0	0.17456194	0	1500000	300000	3.125	0	0	1	0	0;
672	397	0	0.046143397	0	1500000	300000	6.8761406	0	0	1	0	0;
737	703	0	0.345162616	0	1800000	360000	33	0	0	1	0	0;
846	741	0	0.001266508	0	1500000	300000	18.75	0	0	1	0	0;
176	40	0	0.069938168	0	1800000	360000	33	0	0	1	0	0;
846	574	0	0.304344412	0	1500000	300000	3.125	0	0	1	0	0;
727	747	0	0.031755749	0	1500000	300000	8.79778126	0	0	1	0	0;
420	27	0	0.149447718	0	1500000	300000	11.5	0	0	1	0	0;
216	315	0	0.225864695	0	1800000	360000	33	0	0	1	0	0;
478	359	0	0.097658461	0	1500000	300000	4.193835028	0	0	1	0	0;
439	853	0	0.025585249	0	1500000	300000	10.14508831	0	0	1	0	0;
439	290	0	0.006309132	0	1500000	300000	18.75	0	0	1	0	0;
439	290	0	0.006419216	0	1500000	300000	18.75	0	0	1	0	0;
722	877	0	0.071126338	0	1500000	300000	5.16905229	0	0	1	0	0;
569	878	0	0.172161378	0	1500000	300000	3.125	0	0	1	0	0;
24	785	0	0.065839772	0	1500000	300000	5.43916157	0	0	1	0	0;
586	560	0	0.001315853	0	1800000	360000	60.40349855	0	0	1	0	0;
292	877	0	0.139329083	0	1800000	360000	33	0	0	1	0	0;
874	292	0	0.100216499	0	1800000	360000	33	0	0	1	0	0;
349	873	0	0.008457215	0	1800000	360000	33	0	0	1	0	0;
349	292	0	0.022839037	0	1800000	360000	33	0	0	1	0	0;
292	872	0	0.062960565	0	1800000	360000	33	0	0	1	0	0;
473	871	0	0.002673214	0	1800000	360000	37.84867357	0	0	1	0	0;
637	848	0	0.013709342	0	1500000	300000	15.30955415	0	0	1	0	0;
700	326	0	0.077546999	0	1500000	300000	4.882664571	0	0	1	0	0;
366	326	0	0.072712267	0	1500000	300000	5.09441991	0	0	1	0	0;
700	491	0	0.186581804	0	1500000	300000	3.125	0	0	1	0	0;
601	363	0	0.021691059	0	1800000	360000	33	0	0	1	0	0;
780	886	0	0.018771858	0	1500000	300000	12.44362651	0	0	1	0	0;
363	780	0	0.040760654	0	1800000	360000	33	0	0	1	0	0;
872	491	0	0.06294537	0	1800000	360000	33	0	0	1	0	0;
292	78	0	0.235350538	0	1800000	360000	33	0	0	1	0	0;
248	867	0	0.042637909	0	1800000	360000	33	0	0	1	0	0;
506	22	0	0.132481166	0	1800000	360000	33	0	0	1	0	0;
620	622	0	0.097519167	0	1500000	300000	11.5	0	0	1	0	0;
276	726	0	0.021024927	0	1500000	300000	11.54733077	0	0	1	0	0;
315	230	0	0.109414931	0	1700000	340000	20.5	0	0	1	0	0;
120	522	0	0.026315804	0	1500000	300000	9.958458725	0	0	1	0	0;
39	295	0	0.078973529	0	1800000	360000	33	0	0	1	0	0;
438	315	0	0.022920082	0	1800000	360000	33	0	0	1	0	0;
503	318	0	0.249517979	0	1500000	300000	11.5	0	0	1	0	0;
484	423	0	0.020598041	0	1500000	300000	11.70460653	0	0	1	0	0;
297	256	0	0.028380915	0	1500000	300000	9.47445191	0	0	1	0	0;
632	429	0	0.083296135	0	1500000	300000	4.657715076	0	0	1	0	0;
365	293	0	0.056333143	0	1800000	360000	33	0	0	1	0	0;
852	829	0	0.050295114	0	1800000	360000	33	0	0	1	0	0;
768	522	0	0.013732646	0	1500000	300000	15.2924155	0	0	1	0	0;
669	516	0	0.001402308	0	1800000	360000	57.9210076	0	0	1	0	0;
613	407	0	0.026200448	0	1500000	300000	9.98735325	0	0	1	0	0;
61	636	0	0.292147111	0	3000000	600000	227.5	0	0	1	0	0;
351	185	0	0.00808763	0	1800000	360000	33	0	0	1	0	0;
37	352	0	0.007302634	0	1600000	320000	22.60095462	0	0	1	0	0;
634	583	0	0.023283793	0	1500000	300000	10.79575616	0	0	1	0	0;
386	244	0	0.002574477	0	3000000	600000	227.5	0	0	1	0	0;
518	223	0	0.016648784	0	1500000	300000	13.46862429	0	0	1	0	0;
694	617	0	0.07411573	0	1500000	300000	5.03059207	0	0	1	0	0;
418	649	0	0.012787678	0	1500000	300000	16.02861071	0	0	1	0	0;
453	677	0	0.074194653	0	1500000	300000	11.5	0	0	1	0	0;
568	659	0	0.005519232	0	1800000	360000	33	0	0	1	0	0;
534	338	0	0.030196521	0	1500000	300000	9.094805735	0	0	1	0	0;
829	53	0	0.047967719	0	1800000	360000	33	0	0	1	0	0;
95	41	0	0.141696529	0	1800000	360000	33	0	0	1	0	0;
163	552	0	0.138560802	0	1800000	360000	33	0	0	1	0	0;
244	739	0	0.01374719	0	3000000	600000	227.5	0	0	1	0	0;
690	47	0	0.051949167	0	1500000	300000	6.35917719	0	0	1	0	0;
840	497	0	0.009763861	0	1800000	360000	33	0	0	1	0	0;
173	18	0	0.032661729	0	1800000	360000	33	0	0	1	0	0;
540	360	0	0.05579577	0	1800000	360000	33	0	0	1	0	0;
24	370	0	0.038571488	0	1800000	360000	33	0	0	1	0	0;
351	651	0	0.038696355	0	1800000	360000	33	0	0	1	0	0;
735	242	0	0.025216109	0	1500000	300000	10.24279109	0	0	1	0	0;
422	446	0	0.01835543	0	1500000	300000	12.62909627	0	0	1	0	0;
807	632	0	0.030626322	0	1500000	300000	9.010428755	0	0	1	0	0;
580	744	0	0.01256669	0	1800000	360000	33	0	0	1	0	0;
652	657	0	0.007126787	0	1500000	300000	18.75	0	0	1	0	0;
759	838	0	0.10242783	0	1500000	300000	4.064006128	0	0	1	0	0;
236	586	0	0.009338968	0	1800000	360000	33	0	0	1	0	0;
559	643	0	0.061498154	0	1800000	360000	33	0	0	1	0	0;
181	533	0	0.011165986	0	1800000	360000	33	0	0	1	0	0;
408	721	0	0.122396382	0	1800000	360000	33	0	0	1	0	0;
302	573	0	0.031973851	0	1500000	300000	8.75815723	0	0	1	0	0;
267	457	0	0.044851891	0	1500000	300000	7.006088115	0	0	1	0	0;
76	388	0	0.007856804	0	1500000	300000	21.53658405	0	0	1	0	0;
268	656	0	0.037619082	0	1500000	300000	7.86761872	0	0	1	0	0;
544	472	0	0.182815572	0	1800000	360000	33	0	0	1	0	0;
681	222	0	0.010722406	0	1500000	300000	18.0030991	0	0	1	0	0;
401	322	0	0.019629482	0	1500000	300000	12.0823561	0	0	1	0	0;
659	680	0	0.000718066	0	1800000	360000	90.06142125	0	0	1	0	0;
148	440	0	0.004165239	0	1500000	300000	18.75	0	0	1	0	0;
804	309	0	0.016773492	0	1500000	300000	13.40249997	0	0	1	0	0;
352	757	0	0.001300568	0	1800000	360000	60.87075635	0	0	1	0	0;
140	849	0	0.046861968	0	1800000	360000	33	0	0	1	0	0;
456	854	0	0.002674406	0	1800000	360000	37.83754445	0	0	1	0	0;
422	18	0	0.135783778	0	1800000	360000	33	0	0	1	0	0;
54	55	0	0.032254362	0	1500000	300000	8.707849585	0	0	1	0	0;
678	280	0	0.014399014	0	1500000	300000	14.82192311	0	0	1	0	0;
218	220	0	0.025212593	0	1800000	360000	33	0	0	1	0	0;
184	264	0	0.256761707	0	1500000	300000	11.5	0	0	1	0	0;
842	457	0	0.016882752	0	1500000	300000	13.34523359	0	0	1	0	0;
814	710	0	0.017503834	0	1500000	300000	13.03102758	0	0	1	0	0;
864	866	0	0.004692717	0	1500000	300000	18.75	0	0	1	0	0;
150	635	0	0.041646806	0	1800000	360000	33	0	0	1	0	0;
188	190	0	0.012890475	0	1800000	360000	33	0	0	1	0	0;
704	757	0	0.001421804	0	1800000	360000	57.3959929	0	0	1	0	0;
763	93	0	0.07786576	0	1500000	300000	11.5	0	0	1	0	0;
387	643	0	0.094094858	0	1800000	360000	33	0	0	1	0	0;
176	149	0	0.219727522	0	1800000	360000	33	0	0	1	0	0;
398	337	0	0.356089709	0	2800000	560000	93.75	0	0	1	0	0;
276	343	0	0.011878942	0	1500000	300000	16.82709237	0	0	1	0	0;
563	369	0	0.043656763	0	1800000	360000	33	0	0	1	0	0;
653	833	0	0.000709153	0	1500000	300000	18.75	0	0	1	0	0;
118	564	0	1.202316458	0	3000000	600000	227.5	0	0	1	0	0;
758	486	0	0.109143077	0	1600000	320000	12.625	0	0	1	0	0;
316	111	0	0.019036536	0	1500000	300000	12.3292532	0	0	1	0	0;
599	844	0	0.018337188	0	1500000	300000	12.63738078	0	0	1	0	0;
845	664	0	0.222621148	0	1500000	300000	3.125	0	0	1	0	0;
672	206	0	0.081660051	0	1800000	360000	33	0	0	1	0	0;
199	740	0	0.123188827	0	1600000	320000	12.625	0	0	1	0	0;
462	250	0	0.093118213	0	1500000	300000	4.327595538	0	0	1	0	0;
539	853	0	0.00053049	0	1500000	300000	18.75	0	0	1	0	0;
804	611	0	0.004874326	0	1800000	360000	33	0	0	1	0	0;
448	474	0	0.000658664	0	1500000	300000	18.75	0	0	1	0	0;
752	493	0	0.127855434	0	1500000	300000	11.5	0	0	1	0	0;
376	651	0	0.019126694	0	1500000	300000	12.2908942	0	0	1	0	0;
39	293	0	0.126095479	0	1800000	360000	33	0	0	1	0	0;
155	57	0	0.233005159	0	2800000	560000	93.75	0	0	1	0	0;
281	147	0	0.09164018	0	1600000	320000	12.625	0	0	1	0	0;
744	564	0	0.14141287	0	3000000	600000	227.5	0	0	1	0	0;
643	267	0	0.044404608	0	1800000	360000	33	0	0	1	0	0;
803	323	0	0.550029925	0	1800000	360000	33	0	0	1	0	0;
624	854	0	0.002233978	0	1800000	360000	42.60512286	0	0	1	0	0;
825	353	0	0.014805949	0	1500000	300000	14.55198688	0	0	1	0	0;
822	537	0	0.001402083	0	1800000	360000	57.92714705	0	0	1	0	0;
607	107	0	0.033487102	0	1500000	300000	8.4950953	0	0	1	0	0;
501	804	0	0.010494257	0	1500000	300000	18.26027664	0	0	1	0	0;
363	78	0	0.124874676	0	1800000	360000	33	0	0	1	0	0;
551	323	0	0.490876762	0	1800000	360000	33	0	0	1	0	0;
261	755	0	0.023442472	0	1600000	320000	12.625	0	0	1	0	0;
481	799	0	0.181749183	0	1800000	360000	33	0	0	1	0	0;
502	236	0	0.047665245	0	1800000	360000	33	0	0	1	0	0;
114	838	0	0.006204115	0	1500000	300000	18.75	0	0	1	0	0;
17	850	0	0.012899202	0	1500000	300000	15.93708222	0	0	1	0	0;
793	223	0	0.031404738	0	1800000	360000	33	0	0	1	0	0;
746	281	0	0.033637729	0	1600000	320000	12.625	0	0	1	0	0;
828	768	0	0.00924307	0	1500000	300000	18.75	0	0	1	0	0;
656	582	0	0.008420575	0	1500000	300000	18.75	0	0	1	0	0;
314	850	0	0.007709668	0	1800000	360000	33	0	0	1	0	0;
804	768	0	0.029767982	0	1500000	300000	9.180942805	0	0	1	0	0;
620	511	0	0.274903137	0	1800000	360000	33	0	0	1	0	0;
272	626	0	0.032584476	0	1500000	300000	8.64956804	0	0	1	0	0;
244	515	0	0.117568088	0	3000000	600000	227.5	0	0	1	0	0;
726	120	0	0.019587626	0	1500000	300000	12.099377	0	0	1	0	0;
250	629	0	0.016869918	0	1500000	300000	13.35192859	0	0	1	0	0;
193	244	0	0.006291898	0	3000000	600000	227.5	0	0	1	0	0;
588	35	0	0.082622632	0	1600000	320000	12.625	0	0	1	0	0;
796	118	0	0.465339827	0	1500000	300000	11.5	0	0	1	0	0;
383	200	0	0.038094588	0	1500000	300000	7.802713725	0	0	1	0	0;
446	317	0	0.020564391	0	1500000	300000	11.71723402	0	0	1	0	0;
73	145	0	0.056775465	0	1800000	360000	33	0	0	1	0	0;
787	203	0	0.458335413	0	1800000	360000	33	0	0	1	0	0;
13	638	0	0.146064103	0	1800000	360000	33	0	0	1	0	0;
431	731	0	0.049128	0	1800000	360000	33	0	0	1	0	0;
613	274	0	0.03803607	0	1500000	300000	7.810628545	0	0	1	0	0;
154	184	0	0.064830599	0	1600000	320000	12.625	0	0	1	0	0;
409	816	0	0.024630182	0	1500000	300000	10.40284459	0	0	1	0	0;
199	113	0	0.139886573	0	1600000	320000	12.625	0	0	1	0	0;
839	465	0	0.138228184	0	1800000	360000	33	0	0	1	0	0;
527	587	0	0.020347935	0	1500000	300000	11.7992892	0	0	1	0	0;
715	405	0	0.046400723	0	1500000	300000	6.850967925	0	0	1	0	0;
778	759	0	0.022594442	0	1800000	360000	33	0	0	1	0	0;
240	363	0	0.053303679	0	1800000	360000	33	0	0	1	0	0;
237	544	0	0.114737085	0	1800000	360000	33	0	0	1	0	0;
193	244	0	0.006330035	0	3000000	600000	227.5	0	0	1	0	0;
708	372	0	0.012687578	0	1800000	360000	33	0	0	1	0	0;
203	487	0	0.178396051	0	1800000	360000	33	0	0	1	0	0;
779	389	0	0.010868232	0	1800000	360000	33	0	0	1	0	0;
544	124	0	0.12048694	0	1800000	360000	33	0	0	1	0	0;
747	672	0	0.051357988	0	1800000	360000	33	0	0	1	0	0;
431	731	0	0.049397498	0	1800000	360000	33	0	0	1	0	0;
...
];

% INFO    : === Translation Options ===
